Info: SIMULATION PARAMETERS:
Info: TIMESTEP               2
Info: NUMBER OF STEPS        0
Info: STEPS PER CYCLE        10
Info: FIRST LDB TIMESTEP     50
Info: LAST LDB TIMESTEP     -1
Info: HOM BACKGROUND SCALING 1
Info: MIN ATOMS PER PATCH    40
Info: INITIAL TEMPERATURE    323
Info: CENTER OF MASS MOVING INITIALLY? NO
Info: DIELECTRIC             1
Info: EXCLUDE                SCALED ONE-FOUR
Info: 1-4 ELECTROSTATICS SCALED BY 1
Info: MODIFIED 1-4 VDW PARAMETERS WILL BE USED
Info: DCD FILENAME           50CMark.dcd
Info: DCD FREQUENCY          1000
Info: DCD FIRST STEP         1000
Info: XST FILENAME           50CMark.xst
Info: XST FREQUENCY          250
Info: NO VELOCITY DCD OUTPUT
Info: NO FORCE DCD OUTPUT
Info: OUTPUT FILENAME        50CMark
Info: BINARY OUTPUT FILES WILL BE USED
Info: RESTART FILENAME       50CMark.restart
Info: RESTART FREQUENCY      500
Info: BINARY RESTART FILES WILL BE USED
Info: SWITCHING ACTIVE
Info: SWITCHING ON           13
Info: SWITCHING OFF          14
Info: PAIRLIST DISTANCE      16
Info: PAIRLIST SHRINK RATE   0.01
Info: PAIRLIST GROW RATE     0.01
Info: PAIRLIST TRIGGER       0.3
Info: PAIRLISTS PER CYCLE    2
Info: PAIRLISTS ENABLED
Info: MARGIN                 0
Info: HYDROGEN GROUP CUTOFF  2.5
Info: PATCH DIMENSION        18.5
Info: ENERGY OUTPUT STEPS    100
Info: CROSSTERM ENERGY INCLUDED IN DIHEDRAL
Info: TIMING OUTPUT STEPS    1000
Info: PRESSURE OUTPUT STEPS  100
Info: GBIS GENERALIZED BORN IMPLICIT SOLVENT ACTIVE
Info: GBIS SOLVENT DIELECTRIC: 78.5
Info: GBIS PROTEIN DIELECTRIC: 1
Info: GBIS COULOMB RADIUS OFFSET: 0.09 Ang
Info: GBIS ION CONCENTRATION: 0.3 M
Info: GBIS DEBYE SCREENING LENGTH: 5.78063 Ang
Info: GBIS DELTA: 1
Info: GBIS BETA: 0.8
Info: GBIS GAMMA: 4.85
Info: GBIS BORN RADIUS CUTOFF: 12 Ang
Info: GBIS MAX BORN RADIUS: 30 Ang
Info: LANGEVIN DYNAMICS ACTIVE
Info: LANGEVIN TEMPERATURE   323
Info: LANGEVIN USING BBK INTEGRATOR
Info: LANGEVIN DAMPING COEFFICIENT IS 1 INVERSE PS
Info: LANGEVIN DYNAMICS NOT APPLIED TO HYDROGENS
Info: FULL ELECTROSTATIC EVALUATION FREQUENCY      2
Info: USING VERLET I (r-RESPA) MTS SCHEME.
Info: C1 SPLITTING OF LONG RANGE ELECTROSTATICS
Info: PLACING ATOMS IN PATCHES BY HYDROGEN GROUPS
Info: RIGID BONDS TO HYDROGEN : ALL
Info:         ERROR TOLERANCE : 1e-08
Info:          MAX ITERATIONS : 100
Info: RIGID WATER USING SETTLE ALGORITHM
Info: RANDOM NUMBER SEED     1528842820
Info: USE HYDROGEN BONDS?    NO
Info: COORDINATE PDB         stableconfiguration.pdb
Info: STRUCTURE FILE         stableconfiguration.psf
Info: PARAMETER file: CHARMM format!
Info: PARAMETERS             par_all27_prot_lipid.inp
Info: USING ARITHMETIC MEAN TO COMBINE L-J SIGMA PARAMETERS
Info: SUMMARY OF PARAMETERS:
Info: 180 BONDS
Info: 447 ANGLES
Info: 566 DIHEDRAL
Info: 46 IMPROPER
Info: 6 CROSSTERM
Info: 119 VDW
Info: 0 VDW_PAIRS
Info: 0 NBTHOLE_PAIRS
Info: STRUCTURE SUMMARY:
Info: 231 ATOMS
Info: 230 BONDS
Info: 426 ANGLES
Info: 608 DIHEDRALS
Info: 32 IMPROPERS
Info: 13 CROSSTERMS
Info: 0 EXCLUSIONS
Info: 122 RIGID BONDS
Info: 571 DEGREES OF FREEDOM
Info: 109 HYDROGEN GROUPS
Info: 4 ATOMS IN LARGEST HYDROGEN GROUP
Info: 109 MIGRATION GROUPS
Info: 4 ATOMS IN LARGEST MIGRATION GROUP
Info: TOTAL MASS = 1555.84 amu
Info: TOTAL CHARGE = 2.5332e-07 e
Info: ADDED 1264 IMPLICIT EXCLUSIONS
Info: NONBONDED TABLE R-SQUARED SPACING: 0.0625
Info: NONBONDED TABLE SIZE: 769 POINTS
Info: ORIGINAL ATOMS MINMAX IS 62.46 44.137 -82.381  79.932 63.463 -56.934
Info: ADJUSTED ATOMS MINMAX IS 63.8661 47.3066 -77.3009  79.1449 62.0804 -58.8421
Info: REMOVING COM VELOCITY -0.16701 -0.169231 -0.576799
TCL: Minimizing for 1000 steps
ETITLE: TS BOND ANGLE DIHED IMPRP ELECT VDW BOUNDARY MISC KINETIC TOTAL TEMP POTENTIAL TOTAL3 TEMPAVG
ENERGY: 0 39.8761 131.4797 42.0133 6.0581 -511.5470 -28.7161 0.0000 0.0000 0.0000 -320.8359 0.0000 -320.8359 -320.8359 0.0000
ENERGY: 200 11.3103 37.6994 23.4838 0.5926 -517.8080 -39.0348 0.0000 0.0000 0.0000 -483.7568 0.0000 -483.7568 -483.7568 0.0000
ENERGY: 400 11.4113 37.0199 21.5160 0.5051 -517.5777 -40.6347 0.0000 0.0000 0.0000 -487.7601 0.0000 -487.7601 -487.7601 0.0000
ENERGY: 600 11.2634 37.1284 19.8883 0.4789 -518.0937 -40.7337 0.0000 0.0000 0.0000 -490.0684 0.0000 -490.0684 -490.0684 0.0000
ENERGY: 800 11.3671 36.0345 18.6401 0.4687 -518.0259 -41.3530 0.0000 0.0000 0.0000 -492.8685 0.0000 -492.8685 -492.8685 0.0000
ENERGY: 1000 11.2205 35.5818 18.3602 0.4712 -517.3010 -42.0794 0.0000 0.0000 0.0000 -493.7469 0.0000 -493.7469 -493.7469 0.0000
TCL: Running for 10000000 steps
ETITLE: TS BOND ANGLE DIHED IMPRP ELECT VDW BOUNDARY MISC KINETIC TOTAL TEMP POTENTIAL TOTAL3 TEMPAVG
ENERGY: 1000 11.2205 35.5818 18.3602 0.4712 -517.3010 -42.0794 0.0000 0.0000 175.4292 -318.3177 309.2119 -493.7469 -318.4123 309.2119
ENERGY: 5000 44.4007 145.5527 50.7421 8.4818 -507.9978 -26.2318 0.0000 0.0000 192.9708 -92.0815 340.1307 -285.0523 -90.2026 342.6220
ENERGY: 9000 37.4098 134.3958 51.1435 5.4476 -507.4319 -29.5559 0.0000 0.0000 182.1971 -126.3940 321.1411 -308.5911 -123.7200 317.1001
ENERGY: 13100 39.0842 142.5034 47.7199 9.8802 -501.4468 -27.4554 0.0000 0.0000 189.3226 -100.3920 333.7003 -289.7145 -98.2124 336.0150
ENERGY: 17100 42.8657 123.4678 42.3475 8.6602 -505.4273 -32.4627 0.0000 0.0000 178.1754 -142.3734 314.0523 -320.5487 -139.7132 305.4082
ENERGY: 21100 51.5903 151.5352 49.8437 9.8805 -509.8022 -36.8562 0.0000 0.0000 189.0483 -94.7605 333.2169 -283.8088 -92.4952 346.3790
